outputs/ieee_30_barras_padrão/network/ieee_30_barras_padrão_base_30.pwf
TITU
VALIDACAO IEEE 30 - MODELAGEM VIA TAP CHANGER
DBAR
(Num)OETGb(    nome    )Gl( V)( A)( Pg)( Qg)( Qn)( Qm)(Bc  )( Pl)( Ql)
    0 L2 A1            1000   0.0   59.0  -11.7  -20.0  150.0    0.0    0.0    0.0
    1 L1 A2            1000  -1.5   25.5   41.6  -20.0   60.0    0.0   21.7   12.7
    2 L  A3             984  -2.1    0.0    0.0    0.0    0.0    0.0    2.4    1.2
    3 L  A4             981  -2.5    0.0    0.0    0.0    0.0    0.0    7.6    1.6
    4 L  A5             983  -2.8    0.0    0.0    0.0    0.0    0.2    0.0    0.0
    5 L  A6             975  -3.0    0.0    0.0    0.0    0.0    0.0    0.0    0.0
    6 L  A7             969  -3.4    0.0    0.0    0.0    0.0    0.0   22.8   10.9
    7 L  A8             963  -3.4    0.0    0.0    0.0    0.0    0.0   30.0   30.0
    8 L  A9             981  -3.7    0.0    0.0    0.0    0.0    0.0    0.0    0.0
    9 L  A10            985  -4.0    0.0    0.0    0.0    0.0    0.0    5.8    2.0
   10 L  A11            981  -3.7    0.0    0.0    0.0    0.0    0.0    0.0    0.0
   11 L  A12            986  -2.2    0.0    0.0    0.0    0.0    0.0   11.2    7.5
   12 L1 A13           1000   0.7   37.0   10.3  -15.0   44.7    0.0    0.0    0.0
   13 L  A14            978  -3.0    0.0    0.0    0.0    0.0    0.0    6.2    1.6
   14 L  A15            981  -3.0    0.0    0.0    0.0    0.0    0.0    8.2    2.5
   15 L  A16            978  -3.3    0.0    0.0    0.0    0.0    0.0    3.5    1.8
   16 L  A17            977  -4.0    0.0    0.0    0.0    0.0    0.0    9.0    5.8
   17 L  A18            970  -4.1    0.0    0.0    0.0    0.0    0.0    3.2    0.9
   18 L  A19            967  -4.5    0.0    0.0    0.0    0.0    0.0    9.5    3.4
   19 L  A20            970  -4.5    0.0    0.0    0.0    0.0    0.0    2.2    0.7
   20 L  A21            993  -4.1    0.0    0.0    0.0    0.0    0.0   17.5   11.2
   21 L1 A22           1000  -4.0   21.6   37.9  -15.0   62.5    0.0    0.0    0.0
   22 L1 A23           1000  -2.2   19.2    7.2  -10.0   40.0    0.0    3.2    1.6
   23 L  A24            988  -3.2    0.0    0.0    0.0    0.0    0.0    8.7    6.7
   24 L  A25            990  -2.3    0.0    0.0    0.0    0.0    0.0    0.0    0.0
   25 L  A26            973  -2.8    0.0    0.0    0.0    0.0    0.0    3.5    2.3
   26 L1 A27            999  -1.5   26.9    9.7  -15.0   48.7    0.0    0.0    0.0
   27 L  A28            976  -3.0    0.0    0.0    0.0    0.0    0.0    0.0    0.0
   28 L  A29            980  -2.8    0.0    0.0    0.0    0.0    0.0    2.4    0.9
   29 L  A30            969  -3.6    0.0    0.0    0.0    0.0    0.0   10.6    1.9
DLIN
(De )d O d(Pa )NcEP ( R% )( X% )(Mvar)(Tap)(Tmn)(Tmx)(Phs)(Bc  )(Cn)(Ce)Ns
    0     1   1        2.00   6.00   3.00
    0     2   1        5.00  19.00   2.00
    1     3   1        6.00  17.00   2.00
    2     3   1        1.00   4.00   0.00
    1     4   1        5.00  20.00   2.00
    1     5   1        6.00  18.00   2.00
    3     5   1        1.00   4.00   0.00
    4     6   1        5.00  12.00   1.00
    5     6   1        3.00   8.00   1.00
    5     7   1        1.00   4.00   0.00
    5     8   1        0.00  21.00   0.00
    5     9   1        0.00  56.00   0.00
    8    10   1        0.00  21.00   0.00
    8     9   1        0.00  11.00   0.00
    3    11   1        0.00  26.00   0.00
   11    12   1        0.00  14.00   0.00
   11    13   1       12.00  26.00   0.00
   11    14   1        7.00  13.00   0.00
   11    15   1        9.00  20.00   0.00
   13    14   1       22.00  20.00   0.00
   15    16   1        8.00  19.00   0.00
   14    17   1       11.00  22.00   0.00
   17    18   1        6.00  13.00   0.00
   18    19   1        3.00   7.00   0.00
    9    19   1        9.00  21.00   0.00
    9    16   1        3.00   8.00   0.00
    9    20   1        3.00   7.00   0.00
    9    21   1        7.00  15.00   0.00
   20    21   1        1.00   2.00   0.00
   14    22   1       10.00  20.00   0.00
   21    23   1       12.00  18.00   0.00
   22    23   1       13.00  27.00   0.00
   23    24   1       19.00  33.00   0.00
   24    25   1       25.00  38.00   0.00
   24    26   1       11.00  21.00   0.00
   27    26   1        0.00  40.00   0.00
   26    28   1       22.00  42.00   0.00
   26    29   1       32.00  60.00   0.00
   28    29   1       24.00  45.00   0.00
    7    27   1        6.00  20.00   2.00
    5    27   1        2.00   6.00   1.00
99999
FIM
